* Define parameters for process variations
.param tplv = 1.0
.param tpwv = 1.0
.param tnln = 1.0
.param tnwn = 1.0
.param tpotv = 1.0
.param tnotv = 1.0

* Define the inverter subcircuit
.subckt inverter in out L=130n W=130n
M1 out in 0 0 pmos L=tplv W=tpwv
+ AS=75.3f AD=75.3f PS=1.23u PD=1.23u
M2 out in 0 0 nmos L=tnln W=tnwn
+ AS=75.3f AD=75.3f PS=1.12u PD=1.23u
.model pmos pmos L=130n W=130n
.model nmos nmos L=130n W=130n
.ends inverter
