*inverter

.param tplv = 1.0
.param tpwv = 1.0
.param tnln = 1.0
.param tnwn = 1.0
.param tpotv = 1.0
.param tnotv = 1.0

.subckt inverter in out
M1 in out in 0 tp L=tplv W=tpwv
+ AS=75.3f AD=75.3f PS=1.23u PD=1.23u
M2 in 0 in 0 tn  L=tnln W=tnwn
+ AS=75.3f AD=75.3f PS=1.12u PD=1.23u

*	BSIM4 4.8.2 models
.model tp pmos level=54 version=4.8.2 TOXE=tpotv
.model tn nmos level=54 version=4.8.2 TOXE=tnotv

.ends inverter 
