.include inverter
.include nand

* Connect 12 inverters in a ring oscillator
X1 in1 out1
X2 out1 in2
X3 in2 out2
X4 out2 in3
X5 in3 out3
X6 out3 in4
X7 in4 out4
X8 out4 in5
X9 in5 out5
X10 out5 in6
X11 in6 out6
X12 out6 in1

* Connect the NAND gate to the ring oscillator
X13 in1 in1_nand vdd vss nand2x1
X14 in1_nand out7

* Specify power supply and ground
Vdd vdd 0 1.8V
Vss vss 0 0V

* Simulate the ring oscillator
.tran 0.01n 50n
