* Include the inverter and NAND gate definitions
.include inverter.txt
.include nand.txt

* Connect 12 inverters in a ring oscillator
X1 in1 out1 inverter
X2 out1 in2 inverter
X3 in2 out2 inverter
X4 out2 in3 inverter
X5 in3 out3 inverter
X6 out3 in4 inverter
X7 in4 out4 inverter
X8 out4 in5 inverter
X9 in5 out5 inverter
X10 out5 in6 inverter
X11 in6 out6 inverter
X12 out6 in1 inverter

* Connect the NAND gate to the ring oscillator
X13 in1 in2 out1 nand vdd vss
X14 out1 in1_nand vdd vss

* Specify power supply and ground
Vdd vdd 0 1.8V
Vss vss 0 0V

* Simulate the ring oscillator
.tran 0.01n 50n
